@<TRIPOS>MOLECULE
RES
46 49 1 0 1
SMALL
NO_CHARGES
@<TRIPOS>CRYSIN
    9.6335     8.4328    25.8234    90.0000    90.0000    90.0000  1  1
@<TRIPOS>ATOM
       1 C            0.4470     0.0110     0.0970 C             1 RES     
       2 C            0.7953     0.9127    -0.8290 C             1 RES     
       3 C            0.0884     1.0852    -1.9470 C             1 RES     
       4 C           -0.9997     0.3486    -2.1810 C             1 RES     
       5 S           -1.9569     0.5561    -3.6250 S             1 RES     
       6 C           -1.3662    -0.5472    -1.2650 C             1 RES     
       7 C           -0.6523    -0.7109    -0.1510 C             1 RES     
       8 H            1.6787     1.5249    -0.6650 H             1 RES     
       9 H            0.4064     1.8345    -2.6690 H             1 RES     
      10 H           -2.2552    -1.1542    -1.4250 H             1 RES     
      11 H           -0.9755    -1.4538     0.5750 H             1 RES     
      12 C           -0.9123     0.5084    -5.0270 C             1 RES     
      13 C            0.3166    -0.0190    -4.9910 C             1 RES     
      14 C            1.0754    -0.0500    -6.0880 C             1 RES     
      15 C            0.6262     0.4340    -7.2480 C             1 RES     
      16 S            1.6664     0.3887    -8.6520 S             1 RES     
      17 C           -0.6018     0.9618    -7.2860 C             1 RES     
      18 C           -1.3606     0.9929    -6.1880 C             1 RES     
      19 H            0.7148    -0.4372    -4.0710 H             1 RES     
      20 H            2.0732    -0.4786    -6.0310 H             1 RES     
      21 H           -0.9969     1.3781    -8.2080 H             1 RES     
      22 H           -2.3589     1.4224    -6.2450 H             1 RES     
      23 C            0.6717     0.3867   -10.1396 C             1 RES     
      24 C            0.8947     1.2518   -11.1366 C             1 RES     
      25 C            0.1568     1.2532   -12.2478 C             1 RES     
      26 C           -0.8365     0.3751   -12.4027 C             1 RES     
      27 S           -1.8315     0.3565   -13.8358 S             1 RES     
      28 C           -1.0783    -0.4869   -11.4157 C             1 RES     
      29 C           -0.3345    -0.4792   -10.3092 C             1 RES     
      30 H            1.6989     1.9766   -11.0378 H             1 RES     
      31 H            0.3711     1.9790   -13.0296 H             1 RES     
      32 H           -1.8887    -1.2071   -11.5108 H             1 RES     
      33 H           -0.5547    -1.1989    -9.5238 H             1 RES     
      34 C           -0.8081     0.3300   -15.2540 C             1 RES     
      35 C            0.4763    -0.0410   -15.2076 C             1 RES     
      36 C            1.2181    -0.0627   -16.3164 C             1 RES     
      37 C            0.6974     0.2751   -17.4981 C             1 RES     
      38 S            1.7160     0.2503   -18.9183 S             1 RES     
      39 C           -0.5863     0.6464   -17.5465 C             1 RES     
      40 C           -1.3280     0.6682   -16.4368 C             1 RES     
      41 H            0.9351    -0.3378   -14.2688 H             1 RES     
      42 H            2.2615    -0.3623   -16.2509 H             1 RES     
      43 H           -1.0419     0.9416   -18.4872 H             1 RES     
      44 H           -2.3720     0.9685   -16.5022 H             1 RES     
      45 H            1.0299    -0.1283     1.0122 H             1 RES     
      46 H            1.1002     0.1074   -19.8112 H             1 RES     
@<TRIPOS>BOND
       1        2        1 1
       2        7        1 1
       3       45        1 1
       4        3        2 1
       5        8        2 1
       6        6        7 1
       7       11        7 1
       8        4        3 1
       9        9        3 1
      10        6        4 1
      11        5        4 1
      12       10        6 1
      13       12        5 1
      14       13       12 1
      15       18       12 1
      16       14       13 1
      17       19       13 1
      18       17       18 1
      19       22       18 1
      20       15       14 1
      21       20       14 1
      22       15       17 1
      23       21       17 1
      24       16       15 1
      25       23       16 1
      26       24       23 1
      27       29       23 1
      28       25       24 1
      29       30       24 1
      30       28       29 1
      31       33       29 1
      32       26       25 1
      33       31       25 1
      34       28       26 1
      35       27       26 1
      36       32       28 1
      37       34       27 1
      38       35       34 1
      39       40       34 1
      40       36       35 1
      41       41       35 1
      42       39       40 1
      43       44       40 1
      44       37       36 1
      45       42       36 1
      46       37       39 1
      47       43       39 1
      48       38       37 1
      49       46       38 1
@<TRIPOS>SUBSTRUCTURE
       1 RES             1 RESIDUE    0 **** ROOT      0
