@<TRIPOS>MOLECULE
RES
13 13 1 0 1
SMALL
NO_CHARGES
@<TRIPOS>CRYSIN
   10.8861     9.3189     6.3720    90.0000    90.0000    90.0000  1  1
@<TRIPOS>ATOM
       1 C           -1.6928     0.0162    -0.2074 C             1 RES     
       2 C           -1.0210    -1.2000    -0.0477 C             1 RES     
       3 C            0.3539    -1.2118     0.2102 C             1 RES     
       4 C            1.0587    -0.0056     0.3084 C             1 RES     
       5 S            2.8178    -0.0196     0.6384 S             1 RES     
       6 C            0.3846     1.2116     0.1486 C             1 RES     
       7 C           -0.9902     1.2216    -0.1092 C             1 RES     
       8 H           -2.7566     0.0247    -0.4069 H             1 RES     
       9 H           -1.5651    -2.1325    -0.1238 H             1 RES     
      10 H            0.8686    -2.1564     0.3326 H             1 RES     
      11 H            3.1295    -0.0583    -0.7336 H             1 RES     
      12 H            0.9232     2.1478     0.2233 H             1 RES     
      13 H           -1.5106     2.1625    -0.2328 H             1 RES     
@<TRIPOS>BOND
       1        2        1 1
       2        7        1 1
       3        8        1 1
       4        3        2 1
       5        9        2 1
       6        4        3 1
       7       10        3 1
       8        5        4 1
       9        6        4 1
      10       11        5 1
      11        7        6 1
      12       12        6 1
      13       13        7 1
@<TRIPOS>SUBSTRUCTURE
       1 RES             1 RESIDUE    0 **** ROOT      0
