@<TRIPOS>MOLECULE
RES
37 39 1 0 1
SMALL
NO_CHARGES
@<TRIPOS>CRYSIN
   20.4032    11.8772     7.3119    90.0000    90.0000    90.0000  1  1
@<TRIPOS>ATOM
       1 C            0.7676    -0.9505    -0.0453 C             1 RES     
       2 C           -0.5395    -1.3983     0.1733 C             1 RES     
       3 C           -1.5891    -0.4783     0.2613 C             1 RES     
       4 C           -1.3324     0.8902     0.1307 C             1 RES     
       5 C           -0.0259     1.3398    -0.0880 C             1 RES     
       6 C            1.0276     0.4219    -0.1767 C             1 RES     
       7 O            2.3243     0.8816    -0.3946 O             1 RES     
       8 H            1.5753    -1.6682    -0.1124 H             1 RES     
       9 H           -0.7387    -2.4573     0.2744 H             1 RES     
      10 H           -2.1450     1.6018     0.1988 H             1 RES     
      11 H            0.1681     2.4001    -0.1885 H             1 RES     
      12 C            5.8648    -0.4872    -0.3480 C             1 RES     
      13 C            4.7819     0.3929    -0.2534 C             1 RES     
      14 C            3.4841    -0.0642    -0.4967 C             1 RES     
      15 C            3.2666    -1.4024    -0.8350 C             1 RES     
      16 C            4.3463    -2.2864    -0.9308 C             1 RES     
      17 C            5.6559    -1.8339    -0.6874 C             1 RES     
      18 C            6.8084    -2.7484    -0.7828 C             1 RES     
      19 O            6.6531    -3.9615    -1.0852 O             1 RES     
      20 H            6.8647    -0.1173    -0.1564 H             1 RES     
      21 H            4.9492     1.4296     0.0086 H             1 RES     
      22 H            2.2608    -1.7552    -1.0232 H             1 RES     
      23 H            4.1572    -3.3196    -1.1942 H             1 RES     
      24 C           10.7767    -1.2847    -0.0226 C             1 RES     
      25 C            9.6646    -0.5116     0.3261 C             1 RES     
      26 C            8.3745    -0.9880     0.0787 C             1 RES     
      27 C            8.1940    -2.2386    -0.5180 C             1 RES     
      28 C            9.3030    -3.0155    -0.8685 C             1 RES     
      29 C           10.6051    -2.5429    -0.6227 C             1 RES     
      30 C           11.7881    -3.3452    -0.9841 C             1 RES     
      31 O           11.6665    -4.4771    -1.5235 O             1 RES     
      32 H           11.7701    -0.9012     0.1758 H             1 RES     
      33 H            9.8032     0.4572     0.7884 H             1 RES     
      34 H            7.5150    -0.3884     0.3492 H             1 RES     
      35 H            9.1424    -3.9818    -1.3299 H             1 RES     
      36 H           -2.6111    -0.8292     0.4323 H             1 RES     
      37 H           12.7922    -2.9594    -0.7844 H             1 RES     
@<TRIPOS>BOND
       1        2        1 1
       2        6        1 1
       3        8        1 1
       4        3        2 1
       5        9        2 1
       6        4        3 1
       7       36        3 1
       8        5        6 1
       9        7        6 1
      10        4        5 1
      11       11        5 1
      12       14        7 1
      13       10        4 1
      14       13       12 1
      15       17       12 1
      16       20       12 1
      17       14       13 1
      18       21       13 1
      19       15       14 1
      20       16       17 1
      21       18       17 1
      22       15       16 1
      23       23       16 1
      24       19       18 1
      25       27       18 1
      26       22       15 1
      27       25       24 1
      28       29       24 1
      29       32       24 1
      30       26       25 1
      31       33       25 1
      32       27       26 1
      33       34       26 1
      34       28       29 1
      35       30       29 1
      36       27       28 1
      37       35       28 1
      38       31       30 1
      39       37       30 1
@<TRIPOS>SUBSTRUCTURE
       1 RES             1 RESIDUE    0 **** ROOT      0
