@<TRIPOS>MOLECULE
RES
37 39 1 0 1
SMALL
NO_CHARGES
@<TRIPOS>CRYSIN
   20.3819    11.6110     7.6406    90.0000    90.0000    90.0000  1  1
@<TRIPOS>ATOM
       1 C            0.7676    -0.9514     0.0144 C             1 RES     
       2 C           -0.5395    -1.3846     0.2608 C             1 RES     
       3 C           -1.5891    -0.4610     0.2908 C             1 RES     
       4 C           -1.3324     0.8966     0.0745 C             1 RES     
       5 C           -0.0259     1.3316    -0.1719 C             1 RES     
       6 C            1.0276     0.4100    -0.2028 C             1 RES     
       7 O            2.3243     0.8551    -0.4492 O             1 RES     
       8 H            1.5753    -1.6719    -0.0074 H             1 RES     
       9 H           -0.7387    -2.4352     0.4282 H             1 RES     
      10 H           -2.1450     1.6111     0.0979 H             1 RES     
      11 H            0.1681     2.3835    -0.3388 H             1 RES     
      12 C            5.8420    -0.5428    -0.1621 C             1 RES     
      13 C            4.7592     0.3416    -0.1233 C             1 RES     
      14 C            3.4841    -0.0953    -0.4917 C             1 RES     
      15 C            3.2893    -1.4175    -0.8996 C             1 RES     
      16 C            4.3690    -2.3056    -0.9401 C             1 RES     
      17 C            5.6559    -1.8735    -0.5707 C             1 RES     
      18 C            6.8080    -2.7928    -0.6060 C             1 RES     
      19 O            6.6728    -3.9918    -0.9679 O             1 RES     
      20 H            6.8242    -0.1886     0.1266 H             1 RES     
      21 H            4.9089     1.3660     0.1926 H             1 RES     
      22 H            2.3011    -1.7546    -1.1847 H             1 RES     
      23 H            4.1977    -3.3262    -1.2590 H             1 RES     
      24 C           10.3601    -2.7371     0.7319 C             1 RES     
      25 C            9.0905    -3.1899     0.3589 C             1 RES     
      26 C            8.1690    -2.3048    -0.2067 C             1 RES     
      27 C            8.5155    -0.9650    -0.4003 C             1 RES     
      28 C            9.7839    -0.5074    -0.0288 C             1 RES     
      29 C           10.7172    -1.3923     0.5412 C             1 RES     
      30 C           12.0597    -0.9313     0.9400 C             1 RES     
      31 O           12.4092     0.2686     0.7815 O             1 RES     
      32 H           11.0630    -3.4359     1.1691 H             1 RES     
      33 H            8.8211    -4.2275     0.5084 H             1 RES     
      34 H            7.8008    -0.2803    -0.8385 H             1 RES     
      35 H           10.0333     0.5344    -0.1870 H             1 RES     
      36 H           -2.6111    -0.8004     0.4835 H             1 RES     
      37 H           12.7709    -1.6356     1.3816 H             1 RES     
@<TRIPOS>BOND
       1        2        1 1
       2        6        1 1
       3        8        1 1
       4        3        2 1
       5        9        2 1
       6        4        3 1
       7       36        3 1
       8        5        6 1
       9        7        6 1
      10        4        5 1
      11       11        5 1
      12       14        7 1
      13       10        4 1
      14       13       12 1
      15       17       12 1
      16       20       12 1
      17       14       13 1
      18       21       13 1
      19       15       14 1
      20       16       17 1
      21       18       17 1
      22       15       16 1
      23       23       16 1
      24       19       18 1
      25       26       18 1
      26       22       15 1
      27       25       24 1
      28       29       24 1
      29       32       24 1
      30       26       25 1
      31       33       25 1
      32       27       26 1
      33       28       29 1
      34       30       29 1
      35       27       28 1
      36       35       28 1
      37       31       30 1
      38       37       30 1
      39       34       27 1
@<TRIPOS>SUBSTRUCTURE
       1 RES             1 RESIDUE    0 **** ROOT      0
